LTspice 24.1.9 for Windows
Circuit: C:\home\ECE3201---Electric-Circuit-Design-and-Analysis\books\SPICE Netlists\Chapter 4\P6_60.cir
Start Time: Tue Aug 26 12:59:42 2025
solver = Normal
Maximum thread count: 8
tnom = 27
temp = 27
method = trap
Direct Newton iteration for .op point succeeded.
Total elapsed time: 0.040 seconds.

Files loaded:
C:\home\ECE3201---Electric-Circuit-Design-and-Analysis\books\SPICE Netlists\Chapter 4\P6_60.cir

v_sup=0 FROM 1.8817944025 TO 1.8817944025
